 # ========================== 
 # | PTRACERS parameters | 
 # ========================== 
 &PTRACERS_PARM01
 PTRACERS_Iter0=1
 &
