# =================================t=
# | Parameters for SHELFICE package |
# ===================================
 &SHELFICE_PARM01
 SHELFICEconserve = .TRUE.,
 SHELFICEboundaryLayer = .TRUE.,
 SHELFICEtopoFile='icetopo.exp1',
 SHELFICEloadAnomalyFile = 'phi0.exp1',
 useISOMIPTD = .FALSE.,
#SHELFICEheatTransCoeff = 1.E-4
#SHELFICEsaltTransCoeff = 5.05E-7
 SHELFICEuseGammaFrict = .TRUE.,
 no_slip_shelfice = .TRUE.,
 SHELFICEwriteState = .TRUE.,
 &
