# Packages
 &PACKAGES
 useICEBERG=.TRUE.,
 useDiagnostics=.TRUE.,
 useICEPLUME=.TRUE.,
 useOBCS=.TRUE.,
 usePTRACERS=.TRUE.,
 &
